<?xml version="1.0" encoding="UTF-8"?>

<!-- generated on 2026-01-31T16:17:03.499792+05:30 by Eclipse SUMO netconvert 1.25.0
<netconvertConfiguration xmlns:xsi="http://www.w3.org/2001/XMLSchema-instance" xsi:noNamespaceSchemaLocation="http://sumo.dlr.de/xsd/netconvertConfiguration.xsd">

    <input>
        <osm-files value="map.osm"/>
    </input>

    <output>
        <output-file value="map.net.xml"/>
    </output>

    <projection>
        <proj.utm value="true"/>
    </projection>

    <processing>
        <geometry.remove value="true"/>
        <roundabouts.guess value="true"/>
    </processing>

    <tls_building>
        <tls.guess value="true"/>
        <tls.default-type value="actuated"/>
    </tls_building>

    <edge_removal>
        <remove-edges.isolated value="true"/>
    </edge_removal>

    <junctions>
        <junctions.join value="true"/>
    </junctions>

</netconvertConfiguration>
-->

<net version="1.20" junctionCornerDetail="5" limitTurnSpeed="5.50" xmlns:xsi="http://www.w3.org/2001/XMLSchema-instance" xsi:noNamespaceSchemaLocation="http://sumo.dlr.de/xsd/net_file.xsd">

    <location netOffset="-410425.41,-1439988.76" convBoundary="0.00,0.00,1437.39,1591.50" origBoundary="80.173897,13.024512,80.187146,13.038905" projParameter="+proj=utm +zone=44 +ellps=WGS84 +datum=WGS84 +units=m +no_defs"/>

    <type id="highway.living_street" priority="2" numLanes="1" speed="2.78" disallow="tram rail_urban rail rail_electric rail_fast ship container cable_car subway aircraft wheelchair scooter drone" oneway="0"/>
    <type id="highway.path" priority="1" numLanes="1" speed="5.56" allow="pedestrian bicycle" oneway="0" width="2.00"/>
    <type id="highway.residential" priority="3" numLanes="1" speed="13.89" disallow="tram rail_urban rail rail_electric rail_fast ship container cable_car subway aircraft wheelchair scooter drone" oneway="0"/>
    <type id="highway.secondary" priority="11" numLanes="1" speed="27.78" disallow="tram rail_urban rail rail_electric rail_fast ship container cable_car subway aircraft wheelchair scooter drone" oneway="0"/>
    <type id="highway.service" priority="1" numLanes="1" speed="5.56" allow="pedestrian delivery bicycle" oneway="0"/>
    <type id="highway.tertiary" priority="10" numLanes="1" speed="22.22" disallow="tram rail_urban rail rail_electric rail_fast ship container cable_car subway aircraft wheelchair scooter drone" oneway="0"/>

    <edge id=":10277606443_0" function="internal">
        <lane id=":10277606443_0_0" index="0" disallow="tram rail_urban rail rail_electric rail_fast ship container cable_car subway aircraft wheelchair scooter drone" speed="22.22" length="14.13" shape="491.33,674.71 487.90,673.56 484.59,672.57 481.23,671.79 477.67,671.24"/>
    </edge>
    <edge id=":10277606443_1" function="internal">
        <lane id=":10277606443_1_0" index="0" disallow="tram rail_urban rail rail_electric rail_fast ship container cable_car subway aircraft wheelchair scooter drone" speed="7.47" length="4.53" shape="491.33,674.71 487.29,672.65"/>
    </edge>
    <edge id=":10277606443_2" function="internal">
        <lane id=":10277606443_2_0" index="0" disallow="tram rail_urban rail rail_electric rail_fast ship container cable_car subway aircraft wheelchair scooter drone" speed="3.65" length="1.44" shape="491.33,674.71 490.46,673.56"/>
    </edge>
    <edge id=":10277606443_9" function="internal">
        <lane id=":10277606443_9_0" index="0" disallow="tram rail_urban rail rail_electric rail_fast ship container cable_car subway aircraft wheelchair scooter drone" speed="7.47" length="11.59" shape="487.29,672.65 487.11,672.56 485.20,669.84 485.62,666.54 488.34,662.67"/>
    </edge>
    <edge id=":10277606443_10" function="internal">
        <lane id=":10277606443_10_0" index="0" disallow="tram rail_urban rail rail_electric rail_fast ship container cable_car subway aircraft wheelchair scooter drone" speed="3.65" length="3.23" shape="490.46,673.56 490.34,672.67 490.98,672.05 492.38,671.68"/>
    </edge>
    <edge id=":10277606443_3" function="internal">
        <lane id=":10277606443_3_0" index="0" disallow="tram rail_urban rail rail_electric rail_fast ship container cable_car subway aircraft wheelchair scooter drone" speed="5.76" length="10.25" shape="490.70,664.88 488.49,666.84 488.03,668.62 489.33,670.24 492.38,671.68"/>
    </edge>
    <edge id=":10277606443_4" function="internal">
        <lane id=":10277606443_4_0" index="0" disallow="tram rail_urban rail rail_electric rail_fast ship container cable_car subway aircraft wheelchair scooter drone" speed="13.87" length="14.83" shape="490.70,664.88 487.61,667.11 484.48,669.30 481.21,670.87 477.67,671.24"/>
    </edge>
    <edge id=":10277606443_5" function="internal">
        <lane id=":10277606443_5_0" index="0" disallow="tram rail_urban rail rail_electric rail_fast ship container cable_car subway aircraft wheelchair scooter drone" speed="3.77" length="4.72" shape="490.70,664.88 489.28,665.21 488.42,664.95 488.10,664.11 488.34,662.67"/>
    </edge>
    <edge id=":10277606443_6" function="internal">
        <lane id=":10277606443_6_0" index="0" disallow="tram rail_urban rail rail_electric rail_fast ship container cable_car subway aircraft wheelchair scooter drone" speed="10.16" length="12.04" shape="478.03,668.06 480.46,667.93 482.99,666.98 485.62,665.23 488.34,662.67"/>
    </edge>
    <edge id=":10277606443_7" function="internal">
        <lane id=":10277606443_7_0" index="0" disallow="tram rail_urban rail rail_electric rail_fast ship container cable_car subway aircraft wheelchair scooter drone" speed="22.22" length="14.83" shape="478.03,668.06 481.70,668.63 485.29,669.47 488.84,670.51 492.38,671.68"/>
    </edge>
    <edge id=":10277606443_8" function="internal">
        <lane id=":10277606443_8_0" index="0" disallow="tram rail_urban rail rail_electric rail_fast ship container cable_car subway aircraft wheelchair scooter drone" speed="3.65" length="1.44" shape="478.03,668.06 479.13,668.99"/>
    </edge>
    <edge id=":10277606443_11" function="internal">
        <lane id=":10277606443_11_0" index="0" disallow="tram rail_urban rail rail_electric rail_fast ship container cable_car subway aircraft wheelchair scooter drone" speed="3.65" length="3.23" shape="479.13,668.99 479.44,669.83 478.95,670.58 477.67,671.24"/>
    </edge>
    <edge id=":10696412648_0" function="internal">
        <lane id=":10696412648_0_0" index="0" disallow="tram rail_urban rail rail_electric rail_fast ship container cable_car subway aircraft wheelchair scooter drone" speed="13.89" length="14.44" shape="566.14,783.03 563.87,768.77"/>
    </edge>
    <edge id=":10696412648_1" function="internal">
        <lane id=":10696412648_1_0" index="0" disallow="tram rail_urban rail rail_electric rail_fast ship container cable_car subway aircraft wheelchair scooter drone" speed="8.84" length="3.60" shape="566.14,783.03 566.18,779.43"/>
    </edge>
    <edge id=":10696412648_2" function="internal">
        <lane id=":10696412648_2_0" index="0" disallow="tram rail_urban rail rail_electric rail_fast ship container cable_car subway aircraft wheelchair scooter drone" speed="3.65" length="1.44" shape="566.14,783.03 566.76,781.72"/>
    </edge>
    <edge id=":10696412648_9" function="internal">
        <lane id=":10696412648_9_0" index="0" disallow="tram rail_urban rail rail_electric rail_fast ship container cable_car subway aircraft wheelchair scooter drone" speed="8.84" length="10.96" shape="566.18,779.43 567.43,776.38 569.90,773.89 573.58,771.95"/>
    </edge>
    <edge id=":10696412648_10" function="internal">
        <lane id=":10696412648_10_0" index="0" disallow="tram rail_urban rail rail_electric rail_fast ship container cable_car subway aircraft wheelchair scooter drone" speed="3.65" length="3.23" shape="566.76,781.72 567.49,781.21 568.34,781.49 569.31,782.56"/>
    </edge>
    <edge id=":10696412648_3" function="internal">
        <lane id=":10696412648_3_0" index="0" disallow="tram rail_urban rail rail_electric rail_fast ship container cable_car subway aircraft wheelchair scooter drone" speed="7.49" length="10.20" shape="574.73,774.93 572.07,776.31 570.28,778.04 569.36,780.13 569.31,782.56"/>
    </edge>
    <edge id=":10696412648_4" function="internal">
        <lane id=":10696412648_4_0" index="0" disallow="tram rail_urban rail rail_electric rail_fast ship container cable_car subway aircraft wheelchair scooter drone" speed="7.69" length="15.02" shape="574.73,774.93 570.60,775.89 567.41,775.18 565.17,772.81 563.87,768.77"/>
    </edge>
    <edge id=":10696412648_5" function="internal">
        <lane id=":10696412648_5_0" index="0" disallow="tram rail_urban rail rail_electric rail_fast ship container cable_car subway aircraft wheelchair scooter drone" speed="3.65" length="4.67" shape="574.73,774.93 573.33,774.62 572.66,774.02 572.75,773.13 573.58,771.95"/>
    </edge>
    <edge id=":10696412648_6" function="internal">
        <lane id=":10696412648_6_0" index="0" disallow="tram rail_urban rail rail_electric rail_fast ship container cable_car subway aircraft wheelchair scooter drone" speed="6.11" length="9.06" shape="567.02,768.23 567.81,770.67 569.16,772.10 571.08,772.53 573.58,771.95"/>
    </edge>
    <edge id=":10696412648_7" function="internal">
        <lane id=":10696412648_7_0" index="0" disallow="tram rail_urban rail rail_electric rail_fast ship container cable_car subway aircraft wheelchair scooter drone" speed="13.89" length="14.51" shape="567.02,768.23 569.31,782.56"/>
    </edge>
    <edge id=":10696412648_8" function="internal">
        <lane id=":10696412648_8_0" index="0" disallow="tram rail_urban rail rail_electric rail_fast ship container cable_car subway aircraft wheelchair scooter drone" speed="3.65" length="1.44" shape="567.02,768.23 566.43,769.55"/>
    </edge>
    <edge id=":10696412648_11" function="internal">
        <lane id=":10696412648_11_0" index="0" disallow="tram rail_urban rail rail_electric rail_fast ship container cable_car subway aircraft wheelchair scooter drone" speed="3.65" length="3.23" shape="566.43,769.55 565.71,770.08 564.86,769.82 563.87,768.77"/>
    </edge>
    <edge id=":11043550150_0" function="internal">
        <lane id=":11043550150_0_0" index="0" allow="pedestrian delivery bicycle" speed="3.65" length="4.67" shape="426.96,880.06 425.64,879.47 425.11,878.75 425.37,877.89 426.42,876.90"/>
    </edge>
    <edge id=":11350385863_0" function="internal">
        <lane id=":11350385863_0_0" index="0" disallow="tram rail_urban rail rail_electric rail_fast ship container cable_car subway aircraft wheelchair scooter drone" speed="3.65" length="4.67" shape="304.72,1161.84 304.20,1163.19 303.51,1163.75 302.64,1163.54 301.60,1162.54"/>
    </edge>
    <edge id=":11409351008_0" function="internal">
        <lane id=":11409351008_0_0" index="0" disallow="tram rail_urban rail rail_electric rail_fast ship container cable_car subway aircraft wheelchair scooter drone" speed="13.89" length="14.47" shape="737.58,1318.63 723.25,1316.63"/>
    </edge>
    <edge id=":11409351008_1" function="internal">
        <lane id=":11409351008_1_0" index="0" disallow="tram rail_urban rail rail_electric rail_fast ship container cable_car subway aircraft wheelchair scooter drone" speed="8.64" length="3.80" shape="737.58,1318.63 734.09,1317.56 733.98,1317.47"/>
    </edge>
    <edge id=":11409351008_2" function="internal">
        <lane id=":11409351008_2_0" index="0" disallow="tram rail_urban rail rail_electric rail_fast ship container cable_car subway aircraft wheelchair scooter drone" speed="3.65" length="1.44" shape="737.58,1318.63 736.51,1317.67"/>
    </edge>
    <edge id=":11409351008_9" function="internal">
        <lane id=":11409351008_9_0" index="0" disallow="tram rail_urban rail rail_electric rail_fast ship container cable_car subway aircraft wheelchair scooter drone" speed="8.64" length="10.69" shape="733.98,1317.47 731.55,1315.50 729.96,1312.43 729.34,1308.36"/>
    </edge>
    <edge id=":11409351008_10" function="internal">
        <lane id=":11409351008_10_0" index="0" disallow="tram rail_urban rail rail_electric rail_fast ship container cable_car subway aircraft wheelchair scooter drone" speed="3.65" length="3.23" shape="736.51,1317.67 736.23,1316.82 736.73,1316.08 738.04,1315.46"/>
    </edge>
    <edge id=":11409351008_3" function="internal">
        <lane id=":11409351008_3_0" index="0" disallow="tram rail_urban rail rail_electric rail_fast ship container cable_car subway aircraft wheelchair scooter drone" speed="7.26" length="9.96" shape="732.54,1308.26 732.96,1311.13 734.02,1313.28 735.71,1314.73 738.04,1315.46"/>
    </edge>
    <edge id=":11409351008_4" function="internal">
        <lane id=":11409351008_4_0" index="0" disallow="tram rail_urban rail rail_electric rail_fast ship container cable_car subway aircraft wheelchair scooter drone" speed="7.73" length="14.87" shape="732.54,1308.26 732.07,1312.41 730.37,1315.19 727.43,1316.60 723.25,1316.63"/>
    </edge>
    <edge id=":11409351008_5" function="internal">
        <lane id=":11409351008_5_0" index="0" disallow="tram rail_urban rail rail_electric rail_fast ship container cable_car subway aircraft wheelchair scooter drone" speed="3.65" length="4.67" shape="732.54,1308.26 731.78,1309.49 730.99,1309.91 730.18,1309.54 729.34,1308.36"/>
    </edge>
    <edge id=":11409351008_6" function="internal">
        <lane id=":11409351008_6_0" index="0" disallow="tram rail_urban rail rail_electric rail_fast ship container cable_car subway aircraft wheelchair scooter drone" speed="6.17" length="9.05" shape="723.69,1313.46 726.23,1313.44 728.02,1312.58 729.06,1310.89 729.34,1308.36"/>
    </edge>
    <edge id=":11409351008_7" function="internal">
        <lane id=":11409351008_7_0" index="0" disallow="tram rail_urban rail rail_electric rail_fast ship container cable_car subway aircraft wheelchair scooter drone" speed="13.89" length="14.49" shape="723.69,1313.46 738.04,1315.46"/>
    </edge>
    <edge id=":11409351008_8" function="internal">
        <lane id=":11409351008_8_0" index="0" disallow="tram rail_urban rail rail_electric rail_fast ship container cable_car subway aircraft wheelchair scooter drone" speed="3.65" length="1.44" shape="723.69,1313.46 724.77,1314.41"/>
    </edge>
    <edge id=":11409351008_11" function="internal">
        <lane id=":11409351008_11_0" index="0" disallow="tram rail_urban rail rail_electric rail_fast ship container cable_car subway aircraft wheelchair scooter drone" speed="3.65" length="3.23" shape="724.77,1314.41 725.06,1315.26 724.55,1316.00 723.25,1316.63"/>
    </edge>
    <edge id=":11593886438_0" function="internal">
        <lane id=":11593886438_0_0" index="0" disallow="tram rail_urban rail rail_electric rail_fast ship container cable_car subway aircraft wheelchair scooter drone" speed="6.68" length="9.24" shape="487.14,1276.95 484.61,1277.41 482.80,1278.53 481.72,1280.30 481.35,1282.74"/>
    </edge>
    <edge id=":11593886438_1" function="internal">
        <lane id=":11593886438_1_0" index="0" disallow="tram rail_urban rail rail_electric rail_fast ship container cable_car subway aircraft wheelchair scooter drone" speed="7.94" length="14.33" shape="487.14,1276.95 483.21,1276.57 480.40,1275.01 478.69,1272.28 478.09,1268.38"/>
    </edge>
    <edge id=":11593886438_2" function="internal">
        <lane id=":11593886438_2_0" index="0" disallow="tram rail_urban rail rail_electric rail_fast ship container cable_car subway aircraft wheelchair scooter drone" speed="3.65" length="4.67" shape="487.14,1276.95 485.91,1276.20 485.47,1275.42 485.83,1274.61 487.00,1273.75"/>
    </edge>
    <edge id=":11593886438_3" function="internal">
        <lane id=":11593886438_3_0" index="0" disallow="tram rail_urban rail rail_electric rail_fast ship container cable_car subway aircraft wheelchair scooter drone" speed="6.43" length="9.03" shape="481.29,1268.35 481.67,1270.81 482.74,1272.53 484.52,1273.51 487.00,1273.75"/>
    </edge>
    <edge id=":11593886438_4" function="internal">
        <lane id=":11593886438_4_0" index="0" disallow="tram rail_urban rail rail_electric rail_fast ship container cable_car subway aircraft wheelchair scooter drone" speed="13.89" length="14.39" shape="481.29,1268.35 481.35,1282.74"/>
    </edge>
    <edge id=":11593886438_5" function="internal">
        <lane id=":11593886438_5_0" index="0" disallow="tram rail_urban rail rail_electric rail_fast ship container cable_car subway aircraft wheelchair scooter drone" speed="3.65" length="1.44" shape="481.29,1268.35 480.50,1269.56"/>
    </edge>
    <edge id=":11593886438_9" function="internal">
        <lane id=":11593886438_9_0" index="0" disallow="tram rail_urban rail rail_electric rail_fast ship container cable_car subway aircraft wheelchair scooter drone" speed="3.65" length="3.23" shape="480.50,1269.56 479.71,1269.96 478.90,1269.57 478.09,1268.38"/>
    </edge>
    <edge id=":11593886438_6" function="internal">
        <lane id=":11593886438_6_0" index="0" disallow="tram rail_urban rail rail_electric rail_fast ship container cable_car subway aircraft wheelchair scooter drone" speed="13.89" length="14.35" shape="478.15,1282.73 478.09,1268.38"/>
    </edge>
    <edge id=":11593886438_7" function="internal">
        <lane id=":11593886438_7_0" index="0" disallow="tram rail_urban rail rail_electric rail_fast ship container cable_car subway aircraft wheelchair scooter drone" speed="8.15" length="3.96" shape="478.15,1282.73 478.71,1278.95 478.78,1278.84"/>
    </edge>
    <edge id=":11593886438_8" function="internal">
        <lane id=":11593886438_8_0" index="0" disallow="tram rail_urban rail rail_electric rail_fast ship container cable_car subway aircraft wheelchair scooter drone" speed="3.65" length="1.44" shape="478.15,1282.73 478.95,1281.53"/>
    </edge>
    <edge id=":11593886438_10" function="internal">
        <lane id=":11593886438_10_0" index="0" disallow="tram rail_urban rail rail_electric rail_fast ship container cable_car subway aircraft wheelchair scooter drone" speed="8.15" length="10.27" shape="478.78,1278.84 480.37,1276.20 483.13,1274.46 487.00,1273.75"/>
    </edge>
    <edge id=":11593886438_11" function="internal">
        <lane id=":11593886438_11_0" index="0" disallow="tram rail_urban rail rail_electric rail_fast ship container cable_car subway aircraft wheelchair scooter drone" speed="3.65" length="3.23" shape="478.95,1281.53 479.75,1281.14 480.55,1281.54 481.35,1282.74"/>
    </edge>
    <edge id=":11594002043_0" function="internal">
        <lane id=":11594002043_0_0" index="0" disallow="tram rail_urban rail rail_electric rail_fast ship container cable_car subway aircraft wheelchair scooter drone" speed="6.76" length="9.30" shape="899.37,1099.62 896.95,1100.05 895.19,1101.19 894.08,1103.04 893.63,1105.59"/>
    </edge>
    <edge id=":11594002043_1" function="internal">
        <lane id=":11594002043_1_0" index="0" disallow="tram rail_urban rail rail_electric rail_fast ship container cable_car subway aircraft wheelchair scooter drone" speed="13.89" length="14.34" shape="899.37,1099.62 885.03,1099.73"/>
    </edge>
    <edge id=":11594002043_2" function="internal">
        <lane id=":11594002043_2_0" index="0" disallow="tram rail_urban rail rail_electric rail_fast ship container cable_car subway aircraft wheelchair scooter drone" speed="3.65" length="1.44" shape="899.37,1099.62 898.15,1098.86"/>
    </edge>
    <edge id=":11594002043_9" function="internal">
        <lane id=":11594002043_9_0" index="0" disallow="tram rail_urban rail rail_electric rail_fast ship container cable_car subway aircraft wheelchair scooter drone" speed="3.65" length="3.23" shape="898.15,1098.86 897.73,1098.07 898.10,1097.26 899.28,1096.43"/>
    </edge>
    <edge id=":11594002043_3" function="internal">
        <lane id=":11594002043_3_0" index="0" disallow="tram rail_urban rail rail_electric rail_fast ship container cable_car subway aircraft wheelchair scooter drone" speed="13.89" length="14.22" shape="885.06,1096.53 899.28,1096.43"/>
    </edge>
    <edge id=":11594002043_4" function="internal">
        <lane id=":11594002043_4_0" index="0" disallow="tram rail_urban rail rail_electric rail_fast ship container cable_car subway aircraft wheelchair scooter drone" speed="7.94" length="3.94" shape="885.06,1096.53 888.96,1097.14"/>
    </edge>
    <edge id=":11594002043_5" function="internal">
        <lane id=":11594002043_5_0" index="0" disallow="tram rail_urban rail rail_electric rail_fast ship container cable_car subway aircraft wheelchair scooter drone" speed="3.65" length="1.44" shape="885.06,1096.53 886.26,1097.35"/>
    </edge>
    <edge id=":11594002043_10" function="internal">
        <lane id=":11594002043_10_0" index="0" disallow="tram rail_urban rail rail_electric rail_fast ship container cable_car subway aircraft wheelchair scooter drone" speed="7.94" length="10.38" shape="888.96,1097.14 891.68,1098.85 893.24,1101.67 893.63,1105.59"/>
    </edge>
    <edge id=":11594002043_11" function="internal">
        <lane id=":11594002043_11_0" index="0" disallow="tram rail_urban rail rail_electric rail_fast ship container cable_car subway aircraft wheelchair scooter drone" speed="3.65" length="3.23" shape="886.26,1097.35 886.65,1098.15 886.24,1098.95 885.03,1099.73"/>
    </edge>
    <edge id=":11594002043_6" function="internal">
        <lane id=":11594002043_6_0" index="0" disallow="tram rail_urban rail rail_electric rail_fast ship container cable_car subway aircraft wheelchair scooter drone" speed="6.44" length="9.03" shape="890.43,1105.45 890.19,1102.97 889.20,1101.20 887.48,1100.12 885.03,1099.73"/>
    </edge>
    <edge id=":11594002043_7" function="internal">
        <lane id=":11594002043_7_0" index="0" disallow="tram rail_urban rail rail_electric rail_fast ship container cable_car subway aircraft wheelchair scooter drone" speed="8.22" length="14.19" shape="890.43,1105.45 891.13,1101.59 892.84,1098.80 895.55,1097.08 899.28,1096.43"/>
    </edge>
    <edge id=":11594002043_8" function="internal">
        <lane id=":11594002043_8_0" index="0" disallow="tram rail_urban rail rail_electric rail_fast ship container cable_car subway aircraft wheelchair scooter drone" speed="3.65" length="4.67" shape="890.43,1105.45 891.28,1104.28 892.10,1103.92 892.88,1104.35 893.63,1105.59"/>
    </edge>
    <edge id=":11594002044_0" function="internal">
        <lane id=":11594002044_0_0" index="0" disallow="tram rail_urban rail rail_electric rail_fast ship container cable_car subway aircraft wheelchair scooter drone" speed="13.89" length="14.40" shape="896.21,1175.94 881.82,1175.50"/>
    </edge>
    <edge id=":11594002044_1" function="internal">
        <lane id=":11594002044_1_0" index="0" disallow="tram rail_urban rail rail_electric rail_fast ship container cable_car subway aircraft wheelchair scooter drone" speed="7.98" length="4.08" shape="896.21,1175.94 892.36,1175.27 892.22,1175.18"/>
    </edge>
    <edge id=":11594002044_2" function="internal">
        <lane id=":11594002044_2_0" index="0" disallow="tram rail_urban rail rail_electric rail_fast ship container cable_car subway aircraft wheelchair scooter drone" speed="3.65" length="1.44" shape="896.21,1175.94 895.04,1175.10"/>
    </edge>
    <edge id=":11594002044_9" function="internal">
        <lane id=":11594002044_9_0" index="0" disallow="tram rail_urban rail rail_electric rail_fast ship container cable_car subway aircraft wheelchair scooter drone" speed="7.98" length="10.17" shape="892.22,1175.18 889.66,1173.52 888.12,1170.70 887.74,1166.81"/>
    </edge>
    <edge id=":11594002044_10" function="internal">
        <lane id=":11594002044_10_0" index="0" disallow="tram rail_urban rail rail_electric rail_fast ship container cable_car subway aircraft wheelchair scooter drone" speed="3.65" length="3.23" shape="895.04,1175.10 894.66,1174.29 895.09,1173.50 896.31,1172.74"/>
    </edge>
    <edge id=":11594002044_3" function="internal">
        <lane id=":11594002044_3_0" index="0" disallow="tram rail_urban rail rail_electric rail_fast ship container cable_car subway aircraft wheelchair scooter drone" speed="6.48" length="9.03" shape="890.94,1166.95 891.18,1169.42 892.16,1171.21 893.87,1172.31 896.31,1172.74"/>
    </edge>
    <edge id=":11594002044_4" function="internal">
        <lane id=":11594002044_4_0" index="0" disallow="tram rail_urban rail rail_electric rail_fast ship container cable_car subway aircraft wheelchair scooter drone" speed="8.05" length="14.21" shape="890.94,1166.95 890.22,1170.79 888.46,1173.50 885.66,1175.07 881.82,1175.50"/>
    </edge>
    <edge id=":11594002044_5" function="internal">
        <lane id=":11594002044_5_0" index="0" disallow="tram rail_urban rail rail_electric rail_fast ship container cable_car subway aircraft wheelchair scooter drone" speed="3.65" length="4.67" shape="890.94,1166.95 890.08,1168.12 889.27,1168.48 888.49,1168.05 887.74,1166.81"/>
    </edge>
    <edge id=":11594002044_6" function="internal">
        <lane id=":11594002044_6_0" index="0" disallow="tram rail_urban rail rail_electric rail_fast ship container cable_car subway aircraft wheelchair scooter drone" speed="6.56" length="9.10" shape="881.91,1172.30 884.37,1172.02 886.16,1171.02 887.28,1169.28 887.74,1166.81"/>
    </edge>
    <edge id=":11594002044_7" function="internal">
        <lane id=":11594002044_7_0" index="0" disallow="tram rail_urban rail rail_electric rail_fast ship container cable_car subway aircraft wheelchair scooter drone" speed="13.89" length="14.40" shape="881.91,1172.30 896.31,1172.74"/>
    </edge>
    <edge id=":11594002044_8" function="internal">
        <lane id=":11594002044_8_0" index="0" disallow="tram rail_urban rail rail_electric rail_fast ship container cable_car subway aircraft wheelchair scooter drone" speed="3.65" length="1.44" shape="881.91,1172.30 883.09,1173.14"/>
    </edge>
    <edge id=":11594002044_11" function="internal">
        <lane id=":11594002044_11_0" index="0" disallow="tram rail_urban rail rail_electric rail_fast ship container cable_car subway aircraft wheelchair scooter drone" speed="3.65" length="3.23" shape="883.09,1173.14 883.47,1173.95 883.04,1174.74 881.82,1175.50"/>
    </edge>
    <edge id=":11594002048_0" function="internal">
        <lane id=":11594002048_0_0" index="0" disallow="tram rail_urban rail rail_electric rail_fast ship container cable_car subway aircraft wheelchair scooter drone" speed="3.65" length="4.67" shape="885.15,1047.13 886.41,1047.84 886.87,1048.61 886.53,1049.44 885.39,1050.33"/>
    </edge>
    <edge id=":11594037914_0" function="internal">
        <lane id=":11594037914_0_0" index="0" disallow="tram rail_urban rail rail_electric rail_fast ship container cable_car subway aircraft wheelchair scooter drone" speed="6.32" length="9.04" shape="933.55,947.19 933.12,944.71 931.99,943.05 930.18,942.18 927.67,942.12"/>
    </edge>
    <edge id=":11594037914_1" function="internal">
        <lane id=":11594037914_1_0" index="0" disallow="tram rail_urban rail rail_electric rail_fast ship container cable_car subway aircraft wheelchair scooter drone" speed="13.89" length="14.82" shape="933.55,947.19 933.06,932.37"/>
    </edge>
    <edge id=":11594037914_2" function="internal">
        <lane id=":11594037914_2_0" index="0" disallow="tram rail_urban rail rail_electric rail_fast ship container cable_car subway aircraft wheelchair scooter drone" speed="8.25" length="4.17" shape="933.55,947.19 933.98,943.20 934.06,943.06"/>
    </edge>
    <edge id=":11594037914_3" function="internal">
        <lane id=":11594037914_3_0" index="0" disallow="tram rail_urban rail rail_electric rail_fast ship container cable_car subway aircraft wheelchair scooter drone" speed="3.65" length="1.44" shape="933.55,947.19 934.31,945.96"/>
    </edge>
    <edge id=":11594037914_16" function="internal">
        <lane id=":11594037914_16_0" index="0" disallow="tram rail_urban rail rail_electric rail_fast ship container cable_car subway aircraft wheelchair scooter drone" speed="8.25" length="10.44" shape="934.06,943.06 935.56,940.25 938.27,938.34 942.12,937.48"/>
    </edge>
    <edge id=":11594037914_17" function="internal">
        <lane id=":11594037914_17_0" index="0" disallow="tram rail_urban rail rail_electric rail_fast ship container cable_car subway aircraft wheelchair scooter drone" speed="3.65" length="3.23" shape="934.31,945.96 935.10,945.54 935.91,945.92 936.75,947.09"/>
    </edge>
    <edge id=":11594037914_4" function="internal">
        <lane id=":11594037914_4_0" index="0" disallow="tram rail_urban rail rail_electric rail_fast ship container cable_car subway aircraft wheelchair scooter drone" speed="6.81" length="9.63" shape="942.36,940.67 939.84,941.24 938.06,942.50 937.03,944.45 936.75,947.09"/>
    </edge>
    <edge id=":11594037914_5" function="internal">
        <lane id=":11594037914_5_0" index="0" disallow="tram rail_urban rail rail_electric rail_fast ship container cable_car subway aircraft wheelchair scooter drone" speed="13.89" length="14.76" shape="942.36,940.67 927.67,942.12"/>
    </edge>
    <edge id=":11594037914_6" function="internal">
        <lane id=":11594037914_6_0" index="0" disallow="tram rail_urban rail rail_electric rail_fast ship container cable_car subway aircraft wheelchair scooter drone" speed="7.93" length="14.35" shape="942.36,940.67 938.42,940.41 935.55,938.94 933.77,936.26 933.06,932.37"/>
    </edge>
    <edge id=":11594037914_7" function="internal">
        <lane id=":11594037914_7_0" index="0" disallow="tram rail_urban rail rail_electric rail_fast ship container cable_car subway aircraft wheelchair scooter drone" speed="3.65" length="4.67" shape="942.36,940.67 941.10,939.97 940.64,939.20 940.98,938.37 942.12,937.48"/>
    </edge>
    <edge id=":11594037914_8" function="internal">